[General]
network = RingNetwork
sim-time-limit = 100s
**.numNodes = 5
**.totalTokens = 10
**.node[*].cmdenv-log-level = info